<?xml version="1.0" encoding="UTF-8"?>

<!-- generated on 2023-12-22 22:07:26 by Eclipse SUMO netedit Version 1.19.0
<configuration xmlns:xsi="http://www.w3.org/2001/XMLSchema-instance" xsi:noNamespaceSchemaLocation="http://sumo.dlr.de/xsd/neteditConfiguration.xsd">

    <input>
        <sumocfg-file value="C:\Users\Heni\Downloads\network\fok aaliya\haya.sumocfg"/>
        <route-files value="C:\Users\Heni\Downloads\network\fok aaliya\haya.rou.xml"/>
        <sumo-net-file value="C:\Users\Heni\Downloads\network\fok aaliya\haya.net.xml"/>
    </input>

    <output>
        <output-file value="C:\Users\Heni\Downloads\network\fok aaliya\haya.net.xml"/>
    </output>

    <processing>
        <offset.disable-normalization value="true"/>
    </processing>

    <junctions>
        <no-turnarounds value="true"/>
    </junctions>

    <netedit>
        <new-network value="false"/>
    </netedit>

</configuration>
-->

<net version="1.16" junctionCornerDetail="5" limitTurnSpeed="5.50" xmlns:xsi="http://www.w3.org/2001/XMLSchema-instance" xsi:noNamespaceSchemaLocation="http://sumo.dlr.de/xsd/net_file.xsd">

    <location netOffset="0.00,0.00" convBoundary="-100.00,0.00,400.00,100.00" origBoundary="10000000000.00,10000000000.00,-10000000000.00,-10000000000.00" projParameter="!"/>

    <edge id=":J1_0" function="internal">
        <lane id=":J1_0_0" index="0" speed="7.24" length="6.40" shape="88.82,87.28 89.76,88.11 90.53,88.57 91.40,88.76 92.65,88.80"/>
        <lane id=":J1_0_1" index="1" speed="8.50" length="6.40" shape="88.82,87.28 92.65,92.00"/>
        <lane id=":J1_0_2" index="2" speed="10.13" length="6.40" shape="88.82,87.28 92.65,95.20"/>
    </edge>
    <edge id=":J1_3" function="internal">
        <lane id=":J1_3_0" index="0" speed="13.89" length="4.44" shape="88.21,92.00 92.65,92.00"/>
        <lane id=":J1_3_1" index="1" speed="13.89" length="4.44" shape="88.21,95.20 92.65,95.20"/>
        <lane id=":J1_3_2" index="2" speed="13.89" length="4.44" shape="88.21,98.40 92.65,98.40"/>
    </edge>
    <edge id=":J6_0" function="internal">
        <lane id=":J6_0_0" index="0" speed="13.89" length="0.24" shape="85.06,83.74 85.23,83.91"/>
    </edge>
    <edge id=":J7_0" function="internal">
        <lane id=":J7_0_0" index="0" speed="13.89" length="8.00" shape="196.00,92.00 204.00,92.00"/>
        <lane id=":J7_0_1" index="1" speed="13.89" length="8.00" shape="196.00,95.20 204.00,95.20"/>
        <lane id=":J7_0_2" index="2" speed="13.89" length="8.00" shape="196.00,98.40 204.00,98.40"/>
    </edge>

    <edge id="E0" from="J0" to="J1" priority="-1">
        <lane id="E0_0" index="0" speed="13.89" length="188.21" shape="-100.00,92.00 88.21,92.00"/>
        <lane id="E0_1" index="1" speed="13.89" length="188.21" shape="-100.00,95.20 88.21,95.20"/>
        <lane id="E0_2" index="2" speed="13.89" length="188.21" shape="-100.00,98.40 88.21,98.40"/>
    </edge>
    <edge id="E3" from="J5" to="J6" priority="-1">
        <lane id="E3_0" index="0" speed="13.89" length="119.36" shape="1.14,-1.13 85.06,83.74"/>
    </edge>
    <edge id="E4" from="J6" to="J1" priority="-1">
        <lane id="E4_0" index="0" speed="13.89" length="4.92" shape="85.23,83.91 88.82,87.28"/>
    </edge>
    <edge id="E5" from="J1" to="J7" priority="-1">
        <lane id="E5_0" index="0" speed="13.89" length="103.35" shape="92.65,88.80 196.00,88.80"/>
        <lane id="E5_1" index="1" speed="13.89" length="103.35" shape="92.65,92.00 196.00,92.00"/>
        <lane id="E5_2" index="2" speed="13.89" length="103.35" shape="92.65,95.20 196.00,95.20"/>
        <lane id="E5_3" index="3" speed="13.89" length="103.35" shape="92.65,98.40 196.00,98.40"/>
    </edge>
    <edge id="E6" from="J7" to="J8" priority="-1">
        <lane id="E6_0" index="0" speed="13.89" length="196.00" shape="204.00,92.00 400.00,92.00"/>
        <lane id="E6_1" index="1" speed="13.89" length="196.00" shape="204.00,95.20 400.00,95.20"/>
        <lane id="E6_2" index="2" speed="13.89" length="196.00" shape="204.00,98.40 400.00,98.40"/>
    </edge>

    <tlLogic id="J6" type="static" programID="0" offset="0">
        <phase duration="82" state="G"/>
        <phase duration="3"  state="y"/>
        <phase duration="5"  state="r"/>
    </tlLogic>

    <junction id="J0" type="dead_end" x="-100.00" y="100.00" incLanes="" intLanes="" shape="-100.00,100.00 -100.00,90.40"/>
    <junction id="J1" type="priority" x="100.00" y="100.00" incLanes="E4_0 E0_0 E0_1 E0_2" intLanes=":J1_0_0 :J1_0_1 :J1_0_2 :J1_3_0 :J1_3_1 :J1_3_2" shape="92.65,100.00 92.65,87.20 91.53,87.14 91.13,87.04 90.77,86.84 90.39,86.54 89.91,86.11 87.72,88.44 88.70,89.53 88.88,89.91 88.86,90.18 88.64,90.35 88.21,90.40 88.21,100.00">
        <request index="0" response="111000" foes="111000" cont="0"/>
        <request index="1" response="111000" foes="111000" cont="0"/>
        <request index="2" response="111000" foes="111000" cont="0"/>
        <request index="3" response="000000" foes="000111" cont="0"/>
        <request index="4" response="000000" foes="000111" cont="0"/>
        <request index="5" response="000000" foes="000111" cont="0"/>
    </junction>
    <junction id="J5" type="dead_end" x="0.00" y="0.00" incLanes="" intLanes="" shape="-0.00,0.00 2.28,-2.25"/>
    <junction id="J6" type="traffic_light" x="84.03" y="84.97" incLanes="E3_0" intLanes=":J6_0_0" shape="84.14,85.07 86.33,82.74 86.20,82.62 83.93,84.87">
        <request index="0" response="0" foes="0" cont="0"/>
    </junction>
    <junction id="J7" type="priority" x="200.00" y="100.00" incLanes="E5_0 E5_1 E5_2 E5_3" intLanes=":J7_0_0 :J7_0_1 :J7_0_2" shape="204.00,100.00 204.00,90.40 200.97,89.57 199.03,88.03 197.79,87.44 196.00,87.20 196.00,100.00">
        <request index="0" response="000" foes="000" cont="0"/>
        <request index="1" response="000" foes="000" cont="0"/>
        <request index="2" response="000" foes="000" cont="0"/>
    </junction>
    <junction id="J8" type="dead_end" x="400.00" y="100.00" incLanes="E6_0 E6_1 E6_2" intLanes="" shape="400.00,90.40 400.00,100.00"/>

    <connection from="E0" to="E5" fromLane="0" toLane="1" via=":J1_3_0" dir="s" state="M"/>
    <connection from="E0" to="E5" fromLane="1" toLane="2" via=":J1_3_1" dir="s" state="M"/>
    <connection from="E0" to="E5" fromLane="2" toLane="3" via=":J1_3_2" dir="s" state="M"/>
    <connection from="E3" to="E4" fromLane="0" toLane="0" via=":J6_0_0" tl="J6" linkIndex="0" dir="s" state="O"/>
    <connection from="E4" to="E5" fromLane="0" toLane="0" via=":J1_0_0" dir="s" state="m"/>
    <connection from="E4" to="E5" fromLane="0" toLane="1" via=":J1_0_1" dir="s" state="m"/>
    <connection from="E4" to="E5" fromLane="0" toLane="2" via=":J1_0_2" dir="s" state="m"/>
    <connection from="E5" to="E6" fromLane="1" toLane="0" via=":J7_0_0" dir="s" state="M"/>
    <connection from="E5" to="E6" fromLane="2" toLane="1" via=":J7_0_1" dir="s" state="M"/>
    <connection from="E5" to="E6" fromLane="3" toLane="2" via=":J7_0_2" dir="s" state="M"/>

    <connection from=":J1_0" to="E5" fromLane="0" toLane="0" dir="s" state="M"/>
    <connection from=":J1_0" to="E5" fromLane="1" toLane="1" dir="s" state="M"/>
    <connection from=":J1_0" to="E5" fromLane="2" toLane="2" dir="s" state="M"/>
    <connection from=":J1_3" to="E5" fromLane="0" toLane="1" dir="s" state="M"/>
    <connection from=":J1_3" to="E5" fromLane="1" toLane="2" dir="s" state="M"/>
    <connection from=":J1_3" to="E5" fromLane="2" toLane="3" dir="s" state="M"/>
    <connection from=":J6_0" to="E4" fromLane="0" toLane="0" dir="s" state="M"/>
    <connection from=":J7_0" to="E6" fromLane="0" toLane="0" dir="s" state="M"/>
    <connection from=":J7_0" to="E6" fromLane="1" toLane="1" dir="s" state="M"/>
    <connection from=":J7_0" to="E6" fromLane="2" toLane="2" dir="s" state="M"/>

</net>
